begin griddata
  strt
    constant 0.0
end griddata
