# File generated by Flopy version 3.3.3 on 10/15/2021 at 17:24:03.
BEGIN options
  COMPLEXITY  simple
END options

