# File generated by Flopy version 3.3.3 on 10/15/2021 at 17:24:03.
BEGIN options
  SAVE_FLOWS
END options

BEGIN griddata
  icelltype
    CONSTANT  1
  k
    CONSTANT       1.00000000
END griddata

