# File generated by Flopy version 3.3.3 on 10/15/2021 at 17:24:03.
BEGIN options
END options

BEGIN dimensions
  NLAY  10
  NROW  101
  NCOL  101
END dimensions

BEGIN griddata
  delr
    CONSTANT       4.00000000
  delc
    CONSTANT       4.00000000
  top
    CONSTANT       0.00000000
  botm  LAYERED
    CONSTANT      -5.00000000
    CONSTANT     -10.00000000
    CONSTANT     -15.00000000
    CONSTANT     -20.00000000
    CONSTANT     -25.00000000
    CONSTANT     -30.00000000
    CONSTANT     -35.00000000
    CONSTANT     -40.00000000
    CONSTANT     -45.00000000
    CONSTANT     -50.00000000
END griddata

