# File generated by Flopy version 3.3.3 on 10/15/2021 at 17:24:03.
BEGIN options
END options

BEGIN packages
  DIS6  mf6lake.dis  dis
  IC6  mf6lake.ic  ic
  NPF6  mf6lake.npf  npf
  CHD6  mf6lake.chd  chd
  OC6  mf6lake.oc  oc
END packages

