# File generated by Flopy version 3.3.3 on 10/15/2021 at 17:24:04.
BEGIN options
  BUDGET  FILEOUT  mf6lake.cbc
  HEAD  FILEOUT  mf6lake.hds
END options

BEGIN period  1
  SAVE  HEAD  ALL
  SAVE  BUDGET  ALL
  PRINT  HEAD  LAST
END period  1

